myETL/UCT_Source/20221102_1230_FO3_RS0.UCT
##C 2007.05.01
*******************************************************
	Created by Transmission Network Analyzer_FORsee (TNA_FORsee). Made by EKC Belgrade & DMS Group Novi Sad, 2012.
	475  nodes
	595  lines
	59  transformers
	59  transformer regulations
	0  tap changers
*******************************************************

##N
##ZRS
JZREN45  JZREN45      0 0 115.54 21.3558 4.94066       0       0       0       0       0       0     0       0       0       0  
JZREN352 JZREN352     0 0 115.65 11.9887 2.47033       0       0       0       0       0       0     0       0       0       0  
JZREN351 JZREN351     0 0 115.65 10.4661 3.59963       0       0       0       0       0       0     0       0       0       0  
JZREN252 JZREN252     0 0 115.74       0       0       0       0       0       0       0       0     0       0       0       0  
JZREN251 JZREN251     0 0  115.8       0       0       0       0       0       0       0       0     0       0       0       0  
JZREN221 JZREN22      0 0 233.63       0       0       0       0       0       0       0       0     0       0       0       0  
JZREN15  JZREN15      0 0 115.46 24.4512 5.65655       0       0       0       0       0       0     0       0       0       0  
JZLAT251 JZLAT25      0 0 113.78 11.4442       0       0       0       0       0       0       0     0       0       0       0  
JZASTA5  JZASTA5      0 0 117.41 7.19925 4.36593       0       0       0       0       0       0     0       0       0       0  
JZAMRS5  JZAMRS5      0 0    110       0       0       0       0       0       0       0       0     0       0       0       0  
JZAJE252 JZAJE252     0 0 111.23 25.8326 3.42822       0       0       0       0       0       0     0       0       0       0  
JZAJE251 JZAJE251     0 0 111.23       0       0       0       0       0       0       0       0     0       0       0       0  
JZAJE15  JZAJE15      0 0 110.93 9.95191       0       0       0       0       0       0       0     0       0       0       0  
JZABAL5  JZABAL5      0 0 116.24 10.2544 3.35763       0       0       0       0       0       0     0       0       0       0  
JVRSA25  JVRSA25      0 0 113.08 18.3208  5.9288       0       0       0       0       0       0     0       0       0       0  
JVRSA15  JVRSA15      0 0  112.9 14.4187  3.7307       0       0       0       0       0       0     0       0       0       0  
JVRBA25  JVRBA25      0 0 114.17 11.1316 1.77461       0       0       0       0       0       0     0       0       0       0  
JVRBA15  JVRBA15      0 0 114.06 16.8991 3.90212       0       0       0       0       0       0     0       0       0       0  
JVRAN452 JVRAN452     0 0 109.46       0       0       0       0       0       0       0       0     0       0       0       0  
JVRAN451 JVRAN451     0 0 109.46       0       0       0       0       0       0       0       0     0       0       0       0  
JVRAN411 JVRAN411     0 0 384.13       0       0       0       0       0       0       0       0     0       0       0       0  
JVRAN25  JVRAN25      0 0 109.33 17.6755 3.75087       0       0       0       0       0       0     0       0       0       0  
JVRAN152 JVRAN152     0 0 109.14       0       0       0       0       0       0       0       0     0       0       0       0  
JVRAN151 JVRAN151     0 0 109.14   13.37 4.49701       0       0       0       0       0       0     0       0       0       0  
JVPLAN5  JVPLAN5      0 0 113.01  17.252 1.30071       0       0       0       0       0       0     0       0       0       0  
JVLASO5  JVLASO5      0 0 108.26 13.1079 4.12394       0       0       0       0       0       0     0       0       0       0  
JVLADI5  JVLADI5      0 0 112.39 11.1316 4.03319       0       0       0       0       0       0     0       0       0       0  
JVKRIV5  JVKRIV5      0 0 111.82 44.3147 5.84813       0       0       0       0       0       0     0       0       0       0  
JVHAN 51 JVHAN 51     0 0 108.88 7.96556 3.05514       0       0       0       0       0       0     0       0       0       0  
JVBANJ5  JVBANJ5      0 0 112.32 14.3783 2.73249       0       0       0       0       0       0     0       0       0       0  
JVALJ352 JVALJ352     0 0 119.95       0       0       0       0       0       0       0       0     0       0       0       0  
JVALJ351 JVALJ351     0 0 119.81       0       0       0       0       0       0       0       0     0       0       0       0  
JVALJ322 JVALJ322     0 0 228.46       0       0       0       0       0       0       0       0     0       0       0       0  
JVALJ321 JVALJ321     0 0 228.46       0       0       0       0       0       0       0       0     0       0       0       0  
JVALJ25  JVALJ25      0 0 119.34 24.2697 6.98751       0       0       0       0       0       0     0       0       0       0  
JVALJ152 JVALJ152     0 0 119.52       0       0       0       0       0       0       0       0     0       0       0       0  
JVALJ151 JVALJ151     0 0 119.52 31.1262 8.84278       0       0       0       0       0       0     0       0       0       0  
JUZICE51 JUZICE51     0 0 112.62 25.1772 6.61444       0       0       0       0       0       0     0       0       0       0  
JTTZRE5  JTTZRE5      0 0 115.55 .342822 .524315       0       0       0     -80       0     -30     0       0       0       0 G
JTTNSA52 JTTNSA52     0 2 117.53       0       0     -80       0     -50    -110       0     -60     0       0       0       0 G
JTTNSA51 JTTNSA51     0 2 117.53       0       0     -80       0     -50    -110       0     -60     0       0       0       0 G
JTTBGD52 JTTBGD52     0 0 117.98       0       0       0       0       0       0       0       0     0       0       0       0  
JTTBGD51 JTTBGD51     0 0 117.98  47.138 1.84519       0       0       0       0       0       0     0       0       0       0  
JTRSTE5  JTRSTE5      0 0 111.92 15.2656 4.98099       0       0       0       0       0       0     0       0       0       0  
JTOPOL5  JTOPOL5      0 0 116.23 11.2022 5.91871       0       0       0       0       0       0     0       0       0       0  
JTMORA5  JTMORA5      0 2    115 11.5854 3.53913     -90 -7.1632     -75    -110       0     -30     0       0       0       0 L
JTKSTA52 JTKSTA52     0 2    115       0       0    -180 -5.3686    -150    -198       0     -60     0       0       0       0 L
JTKSTA51 JTKSTA51     0 2 114.95       0       0     -80     -40     -45    -105       0     -40     0       0       0       0 L
JTKOLU55 JTKOLU55     0 0 112.25       0       0       0       0       0    -108       0     -30     0       0       0       0 L
JTKOLU54 JTKOLU54     0 0 112.25       0       0       0       0       0     -20       0     -20     0       0       0       0 L
JTKOLU53 JTKOLU53     0 0 112.25       0       0       0       0       0     -58       0     -20     0       0       0       0 L
JTKOLU52 JTKOLU52     0 2 112.29       0       0     -20       0     -20     -29       0     -20     0       0       0       0 L
JTKOLU51 JTKOLU51     0 0 112.25       0       0       0       0       0     -29       0     -20     0       0       0       0 L
JTENTB2  JTENTB2      0 0 238.78 3.06523 2.25859       0       0       0       0       0       0     0       0       0       0  
JTENTB12 JTENTB12     0 2 410.68       0       0    -500     150    -490    -620     150    -250     0       0       0       0 L
JTENTB11 JTENTB11     0 2 410.73       0       0    -580     150    -490    -620     150    -250     0       0       0       0 L
JTENTA24 JTENTA24     0 2    239       0       0    -270 -64.895    -220    -305      50    -140     0       0       0       0 L
JTENTA23 JTENTA23     0 2    239       0       0    -270 -64.904    -220    -305      50    -140     0       0       0       0 L
JTENTA22 JTENTA22     0 2    239       0       0    -140  -53.82    -130    -190      50    -140     0       0       0       0 L
JTENTA21 JTENTA21     0 2    239       0       0    -140 -53.825    -130    -190      50    -140     0       0       0       0 L
JTENTA2  JTENTA2      0 0 238.81 3.99286 2.53083       0       0       0       0       0       0     0       0       0       0  
JTENTA12 JTENTA12     0 2    412       0       0    -270    -140    -220    -320      50    -140     0       0       0       0 L
JTENTA11 JTENTA11     0 0 411.88       0       0       0       0       0    -320      50    -140     0       0       0       0 L
JTEMER5  JTEMER5      0 0 116.49 13.1785 4.03319       0       0       0       0       0       0     0       0       0       0  
JTDRMN51 JTDRMN51     0 0 113.92 21.3658 15.8706       0       0       0       0       0       0     0       0       0       0  
JTDRMN12 JTDRMN12     0 2    418       0       0    -300 28.1318    -220    -325      30    -100     0       0       0       0 L
JTDRMN11 JTDRMN11     0 2    418       0       0    -300  28.135    -220    -325      30    -100     0       0       0       0 L
JTAMNZ5  JTAMNZ5      0 0 113.29 27.9702 11.2425       0       0       0       0       0       0     0       0       0       0  
JTAMNV5  JTAMNV5      0 0 111.93  36.692 32.5176       0       0       0       0       0       0     0       0       0       0  
JSVRLJ5  JSVRLJ5      0 0 109.19 4.94066 1.71411       0       0       0       0       0       0     0       0       0       0  
JSUBO45  JSUBO45      0 0 115.11 11.9988  2.0166       0       0       0       0       0       0     0       0       0       0  
JSUBO352 JSUBO352     0 0 115.81       0       0       0       0       0       0       0       0     0       0       0       0  
JSUBO351 JSUBO351     0 0 115.39       0       0       0       0       0       0       0       0     0       0       0       0  
JSUBO312 JSUBO312     0 0 414.78       0       0       0       0       0       0       0       0     0       0       0       0  
JSUBO311 JSUBO311     0 0 414.78       0       0       0       0       0       0       0       0     0       0       0       0  
JSUBO25  JSUBO25      0 0  115.5 20.4281 2.81315       0       0       0       0       0       0     0       0       0       0  
JSUBO15  JSUBO15      0 0  115.6 21.0835 3.14589       0       0       0       0       0       0     0       0       0       0  
JSTRAG5  JSTRAG5      0 0 117.21 4.58776 .262158       0       0       0       0       0       0     0       0       0       0  
JSTENJ5  JSTENJ5      0 0 114.26 7.39083 4.45668       0       0       0       0       0       0     0       0       0       0  
JSSTIL5  JSSTIL5      0 0 111.65 41.3302 10.2443       0       0       0       0       0       0     0       0       0       0  
JSRBOB52 JSRBOB52     0 0 114.54       0       0       0       0       0       0       0       0     0       0       0       0  
JSRBOB51 JSRBOB51     0 0 114.54 6.64469 1.20996       0       0       0       0       0       0     0       0       0       0  
JSOMB352 JSOMB352     0 0 114.28       0       0       0       0       0       0       0       0     0       0       0       0  
JSOMB351 JSOMB351     0 0 114.28       0       0       0       0       0       0       0       0     0       0       0       0  
JSOMB31  JSOMB31      0 0 413.82       0       0       0       0       0       0       0       0     0       0       0       0  
JSOMB25  JSOMB25      0 0 113.72 18.7039 4.61801       0       0       0       0       0       0     0       0       0       0  
JSOMB15  JSOMB15      0 0 114.19 17.7461  3.9727       0       0       0       0       0       0     0       0       0       0  
JSMPAL5  JSMPAL5      0 0 112.05 18.4519 4.84992       0       0       0       0       0       0     0       0       0       0  
JSMIT35  JSMIT35      0 0 112.38 19.0972 3.54921       0       0       0       0       0       0     0       0       0       0  
JSMIT252 JSMIT252     0 0 112.11       0       0       0       0       0       0       0       0     0       0       0       0  
JSMIT251 JSMIT251     0 0 112.51       0       0       0       0       0       0       0       0     0       0       0       0  
JSMIT222 JSMIT222     0 0    220       0       0       0       0       0       0       0       0     0       0       0       0  
JSMIT221 JSMIT221     0 0 232.55       0       0       0       0       0       0       0       0     0       0       0       0  
JSMIT212 JSMIT212     0 0 408.01       0       0       0       0       0       0       0       0     0       0       0       0  
JSMIT211 JSMIT211     0 0 408.01       0       0       0       0       0       0       0       0     0       0       0       0  
JSMIT15  JSMIT15      0 0 111.91  11.908 2.59133       0       0       0       0       0       0     0       0       0       0  
JSMED45  JSMED45      0 0 114.18 9.07469 2.81315       0       0       0       0       0       0     0       0       0       0  
JSMED352 JSMED352     0 0 112.61 43.2963 10.4056       0       0       0       0       0       0     0       0       0       0  
JSMED351 JSMED351     0 0 112.61 27.5568 6.46319       0       0       0       0       0       0     0       0       0       0  
JSMED32  JSMED32      0 0    220       0       0       0       0       0       0       0       0     0       0       0       0  
JSMED252 JSMED252     0 0 112.95       0       0       0       0       0       0       0       0     0       0       0       0  
JSMED251 JSMED251     0 0 112.81 17.5948 2.97448       0       0       0       0       0       0     0       0       0       0  
JSMED152 JSMED152     0 0 113.02 14.8422 4.25502       0       0       0       0       0       0     0       0       0       0  
JSMED151 JSMED151     0 0 114.18       0       0       0       0       0       0       0       0     0       0       0       0  
JSJENI5  JSJENI5      0 0 112.38 6.89676  3.0249       0       0       0       0       0       0     0       0       0       0  
JSIP  5  JSIP  5      0 0 114.83 5.02133 1.04863       0       0       0       0       0       0     0       0       0       0  
JSID  5  JSID  5      0 0  111.3 16.1227 2.32917       0       0       0       0       0       0     0       0       0       0  
JSEVOJ51 JSEVOJ5      0 0 112.88 17.9679 4.30543       0       0       0       0       0       0     0       0       0       0  
JSENT25  JSENT25      0 0 112.59 11.1115 2.21826       0       0       0       0       0       0     0       0       0       0  
JSENT15  JSENT15      0 0 112.87 4.83983 .907469       0       0       0       0       0       0     0       0       0       0  
JSABA55  JSABA55      0 0 112.56 16.3949 1.59311       0       0       0       0       0       0     0       0       0       0  
JSABA45  JSABA45      0 0  112.7 6.76568 4.08361       0       0       0       0       0       0     0       0       0       0  
JSABA352 JSABA352     0 0 112.86       0       0       0       0       0       0       0       0     0       0       0       0  
JSABA351 JSABA351     0 0 112.76       0       0       0       0       0       0       0       0     0       0       0       0  
JSABA321 JSABA32      0 0 237.46       0       0       0       0       0       0       0       0     0       0       0       0  
JSABA25  JSABA25      0 0 112.62  21.749 2.73249       0       0       0       0       0       0     0       0       0       0  
JSABA15  JSABA15      0 0 112.69 15.9009 5.55573       0       0       0       0       0       0     0       0       0       0  
JRUMA25  JRUMA25      0 0 110.47 16.6168 3.14589       0       0       0       0       0       0     0       0       0       0  
JRUMA15  JRUMA15      0 0 109.56 16.5462 2.14768       0       0       0       0       0       0     0       0       0       0  
JRUDN35  JRUDN35      0 0 114.04 4.81967 3.70046       0       0       0       0       0       0     0       0       0       0  
JRUDN25  JRUDN25      0 0 114.05 4.75917 2.12751       0       0       0       0       0       0     0       0       0       0  
JRUDN15  JRUDN15      0 0 114.13 2.40983 .857054       0       0       0       0       0       0     0       0       0       0  
JRUDKO5  JRUDKO5      0 0  117.1 .514232 .292407       0       0       0       0       0       0     0       0       0       0  
JRSANC5  JRSANC5      0 0 116.61 22.5859 5.17257       0       0       0       0       0       0     0       0       0       0  
JRPMLA12 JRPMLA12     0 0 411.37       0       0       0       0       0       0       0       0     0       0       0       0  
JRPMLA11 JRPMLA11     0 0 411.37       0       0       0       0       0       0       0       0     0       0       0       0  
JRPDRM12 JRPDRM12     0 0 417.67       0       0       0       0       0       0       0       0     0       0       0       0  
JRPDRM11 JRPDRM11     0 0 417.67       0       0       0       0       0       0       0       0     0       0       0       0  
JRHBBA22 JRHBBA22     0 0 232.06       0       0       0       0     300    -300       0     -50     0       0       0       0 H
JRHBBA21 JRHBBA21     0 0 232.06 .322656 .010083       0       0     300    -300       0     -50     0       0       0       0 H
JRASKA5  JRASKA5      0 0 109.48 12.5029 3.70046       0       0       0       0       0       0     0       0       0       0  
JRANIS22 JRANIS22     0 0 235.69       0       0       0       0       0       0       0       0     0       0       0       0  
JRANIS21 JRANIS21     0 0 235.69 33.6268 10.3855       0       0       0       0       0       0     0       0       0       0  
JPROKU5  JPROKU5      0 0 109.14 15.5681 2.62158       0       0       0       0       0       0     0       0       0       0  
JPRIJE5  JPRIJE5      0 0 115.92 12.5332 3.90212       0       0       0       0       0       0     0       0       0       0  
JPRESE5  JPRESE5      0 0 107.82 10.5266 1.92585       0       0       0       0       0       0     0       0       0       0  
JPRAHO5  JPRAHO5      0 0 115.19 5.78763 .120996       0       0       0       0       0       0     0       0       0       0  
JPOZEG51 JPOZEG51     0 0 112.71 17.8267 6.10021       0       0       0       0       0       0     0       0       0       0  
JPOZEG21 JPOZEG2      0 0 226.86       0       0       0       0       0       0       0       0     0       0       0       0  
JPOZAR52 JPOZAR52     0 0 113.83 25.5604 .494066       0       0       0       0       0       0     0       0       0       0  
JPOZAR51 JPOZAR51     0 0 114.27       0       0       0       0       0       0       0       0     0       0       0       0  
JPLISI5  JPLISI5      0 0 108.94       0       0       0       0       0       0       0       0     0       0       0       0  
JPIRO25  JPIRO25      0 0 107.13  16.647 2.79299       0       0       0       0       0       0     0       0       0       0  
JPIRO15  JPIRO15      0 0 107.11 17.7561 4.16427       0       0       0       0       0       0     0       0       0       0  
JPETRO52 JPETRO52     0 0 112.78       0       0       0       0       0       0       0       0     0       0       0       0  
JPETRO51 JPETRO51     0 0 112.78 13.0575 2.18801       0       0       0       0       0       0     0       0       0       0  
JPECIN5  JPECIN5      0 0 111.69 15.4371  3.2568       0       0       0       0       0       0     0       0       0       0  
JPAZOV5  JPAZOV5      0 0 116.28  27.708 8.07647       0       0       0       0       0       0     0       0       0       0  
JPARA35  JPARA35      0 0 111.16 7.52191 2.22834       0       0       0       0       0       0     0       0       0       0  
JPARA152 JPARA152     0 0  111.2       0       0       0       0       0       0       0       0     0       0       0       0  
JPARA151 JPARA151     0 0  111.2 15.2455 5.15241       0       0       0       0       0       0     0       0       0       0  
JPANC45  JPANC45      0 0 117.17 21.0331 3.01481       0       0       0       0       0       0     0       0       0       0  
JPANC35  JPANC35      0 0 117.09 22.7371 2.70224       0       0       0       0       0       0     0       0       0       0  
JPANC252 JPANC252     0 0 117.58       0       0       0       0       0       0       0       0     0       0       0       0  
JPANC251 JPANC251     0 0 116.86       0       0       0       0       0       0       0       0     0       0       0       0  
JPANC22  JPANC22      0 0 237.58       0       0       0       0       0       0       0       0     0       0       0       0  
JPANC211 JPANC211     0 0 414.38       0       0       0       0       0       0       0       0     0       0       0       0  
JPANC151 JPANC152     0 0 116.33 .332739       0       0       0       0       0       0       0     0       0       0       0  
JPANC152 JPANC151     0 0 116.33 2.13759 .534398       0       0       0       0       0       0     0       0       0       0  
JPALIC5  JPALIC5      0 0 115.24 6.88668 .756224       0       0       0       0       0       0     0       0       0       0  
JPALA25  JPALA25      0 0 114.08 22.6665 5.67672       0       0       0       0       0       0     0       0       0       0  
JPALA15  JPALA15      0 0 114.06 8.15714 2.44008       0       0       0       0       0       0     0       0       0       0  
JOSECI5  JOSECI5      0 0 117.46 4.45668 .857054       0       0       0       0       0       0     0       0       0       0  
JODZAC5  JODZAC5      0 0 113.23 21.9809 4.47685       0       0       0       0       0       0     0       0       0       0  
JOBREN23 JOBREN23     0 0 238.82       0       0       0       0       0       0       0       0     0       0       0       0  
JOBREN22 JOBREN22     0 0 238.82       0       0       0       0       0       0       0       0     0       0       0       0  
JOBREN21 JOBREN21     0 0 238.82       0       0       0       0       0       0       0       0     0       0       0       0  
JOBREN12 JOBREN12     0 0 411.88       0       0       0       0       0       0       0       0     0       0       0       0  
JOBREN11 JOBREN11     0 0 411.88       0       0       0       0       0       0       0       0     0       0       0       0  
JNVARO5  JNVARO5      0 0 114.94 6.10021 .988133       0       0       0       0       0       0     0       0       0       0  
JNSAD95  JNSAD95      0 0 117.34 16.5159 1.79477       0       0       0       0       0       0     0       0       0       0  
JNSAD75  JNSAD75      0 0 116.25 45.8776 6.46319       0       0       0       0       0       0     0       0       0       0  
JNSAD65  JNSAD65      0 0 109.21 10.3552  .57473       0       0       0       0       0       0     0       0       0       0  
JNSAD552 JNSAD552     0 0 116.33       0       0       0       0       0       0       0       0     0       0       0       0  
JNSAD551 JNSAD551     0 0 116.33 23.6244 3.39797       0       0       0       0       0       0     0       0       0       0  
JNSAD45  JNSAD45      0 0 117.14 26.6493 2.62158       0       0       0       0       0       0     0       0       0       0  
JNSAD352 JNSAD352     0 0 117.03       0       0       0       0       0       0       0       0     0       0       0       0  
JNSAD351 JNSAD351     0 0 117.03       0       0       0       0       0       0       0       0     0       0       0       0  
JNSAD322 JNSAD322     0 0 237.89       0       0       0       0       0       0       0       0     0       0       0       0  
JNSAD321 JNSAD321     0 0 237.89       0       0       0       0       0       0       0       0     0       0       0       0  
JNSAD312 JNSAD312     0 0 410.58       0       0       0       0       0       0       0       0     0       0       0       0  
JNSAD311 JNSAD311     0 0 410.58       0       0       0       0       0       0       0       0     0       0       0       0  
JNSAD252 JNSAD252     0 0 116.62       0       0       0       0       0       0       0       0     0       0       0       0  
JNSAD251 JNSAD251     0 0 116.62 22.5556 2.06701       0       0       0       0       0       0     0       0       0       0  
JNSAD152 JNSAD152     0 0 109.58       0       0       0       0       0       0       0       0     0       0       0       0  
JNSAD151 JNSAD151     0 0 116.25 15.6387 4.21469       0       0       0       0       0       0     0       0       0       0  
JNPOPO5  JNPOPO5      0 0 111.09 7.94539 .524315       0       0       0       0       0       0     0       0       0       0  
JNPAZO5  JNPAZO5      0 0 116.38 26.5687 7.31016       0       0       0       0       0       0     0       0       0       0  
JNPAZ25  JNPAZ25      0 0 109.05  16.042 3.99286       0       0       0       0       0       0     0       0       0       0  
JNPAZ15  JNPAZ15      0 0 109.08 28.8978 8.34871       0       0       0       0       0       0     0       0       0       0  
JNIS8 5  JNIS8 5      0 0 109.65 9.11502 1.92585       0       0       0       0       0       0     0       0       0       0  
JNIS5 5  JNIS5 5      0 0 109.93 9.22593 2.69216       0       0       0       0       0       0     0       0       0       0  
JNIS3 52 JNIS3 52     0 0 109.72 28.8273 4.51718       0       0       0       0       0       0     0       0       0       0  
JNIS3 51 JNIS3 51     0 0 109.73 27.1837 4.61801       0       0       0       0       0       0     0       0       0       0  
JNIS2 52 JNIS2 52     0 0 110.04       0       0       0       0       0       0       0       0     0       0       0       0  
JNIS2 51 JNIS2 51     0 0 110.04       0       0       0       0       0       0       0       0     0       0       0       0  
JNIS2 2  JNIS2 2      0 0 223.81       0       0       0       0       0       0       0       0     0       0       0       0  
JNIS2 12 JNIS2 12     0 0 387.48       0       0       0       0       0       0       0       0     0       0       0       0  
JNIS2 11 JNIS2 11     0 0 387.48       0       0       0       0       0       0       0       0     0       0       0       0  
JNIS1352 JNIS1352     0 0  109.7 10.7182 1.53261       0       0       0       0       0       0     0       0       0       0  
JNIS1351 JNIS1351     0 0  109.7 7.02784 1.03855       0       0       0       0       0       0     0       0       0       0  
JNIS105  JNIS105      0 0 109.56 16.3949 2.41992       0       0       0       0       0       0     0       0       0       0  
JNIS1 52 JNIS1 52     0 0 109.57       0       0       0       0       0       0       0       0     0       0       0       0  
JNIS1 51 JNIS1 51     0 0 109.57 19.8433 5.38431       0       0       0       0       0       0     0       0       0       0  
JNERES5  JNERES5      0 0 110.53 6.02963 1.37129       0       0       0       0       0       0     0       0       0       0  
JNEGOT5  JNEGOT5      0 0    115 10.8594 1.04863       0       0       0       0       0       0     0       0       0       0  
JNCRNJ5  JNCRNJ5      0 0 114.59 5.63639 1.62336       0       0       0       0       0       0     0       0       0       0  
JNBECE5  JNBECE5      0 0 114.38 8.38904 1.90568       0       0       0       0       0       0     0       0       0       0  
JMOSNA51 JMOSNA51     0 0 108.95 1.41162 .453734       0       0       0       0       0       0     0       0       0       0  
JMLADE5  JMLADE5      0 0 110.49 23.5942 3.75087       0       0       0       0       0       0     0       0       0       0  
JMAJD35  JMAJD35      0 0 109.19 5.59606 4.18444       0       0       0       0       0       0     0       0       0       0  
JMAJD252 JMAJD252     0 0 108.99 5.05158 1.16963       0       0       0       0       0       0     0       0       0       0  
JMAJD251 JMAJD251     0 0 108.99       0       0       0       0       0       0       0       0     0       0       0       0  
JMAJD15  JMAJD15      0 0 108.63 55.1842 19.7627       0       0       0       0       0       0     0       0       0       0  
JMACMI5  JMACMI5      0 0 112.27 3.50888  1.0688       0       0       0       0       0       0     0       0       0       0  
JLOZNI5  JLOZNI5      0 0 115.84 26.0948 4.87008       0       0       0       0       0       0     0       0       0       0  
JLJUBO5  JLJUBO5      0 0 116.59  3.7307 1.51245       0       0       0       0       0       0     0       0       0       0  
JLJIG 5  JLJIG 5      0 0  117.3 8.38904  3.7912       0       0       0       0       0       0     0       0       0       0  
JLESNI5  JLESNI5      0 0 113.81 8.75203 2.24851       0       0       0       0       0       0     0       0       0       0  
JLESK65  JLESK65      0 0 108.54 10.7787 2.06701       0       0       0       0       0       0     0       0       0       0  
JLESK45  JLESK45      0 0 108.33 18.1595 2.97448       0       0       0       0       0       0     0       0       0       0  
JLESK252 JLESK252     0 0 108.58       0       0       0       0       0       0       0       0     0       0       0       0  
JLESK251 JLESK251     0 0 108.58       0       0       0       0       0       0       0       0     0       0       0       0  
JLESK212 JLESK212     0 0 386.79       0       0       0       0       0       0       0       0     0       0       0       0  
JLESK211 JLESK211     0 0 386.79       0       0       0       0       0       0       0       0     0       0       0       0  
JLESK15  JLESK15      0 0 108.48 11.3434 4.02311       0       0       0       0       0       0     0       0       0       0  
JLEBAN5  JLEBAN5      0 0  107.4 21.6986 8.72178       0       0       0       0       0       0     0       0       0       0  
JLAZAR5  JLAZAR5      0 0 117.79 14.2473 3.33747       0       0       0       0       0       0     0       0       0       0  
JLAPOV5  JLAPOV5      0 0 115.44 16.0824 3.99286       0       0       0       0       0       0     0       0       0       0  
JKURSU5  JKURSU5      0 0 109.33 10.4964  3.4988       0       0       0       0       0       0     0       0       0       0  
JKULA 5  JKULA 5      0 0 114.05 10.7989  1.4822       0       0       0       0       0       0     0       0       0       0  
JKSTA 5  JKSTA 5      0 0 114.67 14.1767    6.77       0       0       0       0       0       0     0       0       0       0  
JKRUS45  JKRUS45      0 0 111.49 19.3694 4.58776       0       0       0       0       0       0     0       0       0       0  
JKRUS25  JKRUS25      0 0 111.36 28.9785 7.23958       0       0       0       0       0       0     0       0       0       0  
JKRUS152 JKRUS152     0 0 111.55       0       0       0       0       0       0       0       0     0       0       0       0  
JKRUS151 JKRUS151     0 0 111.55 5.57589 1.90568       0       0       0       0       0       0     0       0       0       0  
JKRUS122 JKRUS122     0 0 222.27       0       0       0       0       0       0       0       0     0       0       0       0  
JKRUS121 JKRUS121     0 0 222.27       0       0       0       0       0       0       0       0     0       0       0       0  
JKRUPA5  JKRUPA5      0 0  116.8 7.65299 4.03319       0       0       0       0       0       0     0       0       0       0  
JKRONO5  JKRONO5      0 0 115.42 5.75738 -.17141       0       0       0       0       0       0     0       0       0       0  
JKRALJ2  JKRALJ2      0 0 222.97       0       0       0       0       0       0       0       0     0       0       0       0  
JKRAL55  JKRAL55      0 0 113.26 15.8807 1.37129       0       0       0       0       0       0     0       0       0       0  
JKRAL352 JKRAL352     0 0 113.54       0       0       0       0       0       0       0       0     0       0       0       0  
JKRAL351 JKRAL351     0 0 113.54       0       0       0       0       0       0       0       0     0       0       0       0  
JKRAL25  JKRAL25      0 0 113.27 16.5462 4.54743       0       0       0       0       0       0     0       0       0       0  
JKRAL15  JKRAL15      0 0 113.16  8.0563 2.47033       0       0       0       0       0       0     0       0       0       0  
JKRAG85  JKRAG85      0 0 117.37  7.2295 1.45195       0       0       0       0       0       0     0       0       0       0  
JKRAG55  JKRAG55      0 0 117.77 15.5681 2.66191       0       0       0       0       0       0     0       0       0       0  
JKRAG35  JKRAG35      0 0 117.59 15.9714 1.86535       0       0       0       0       0       0     0       0       0       0  
JKRAG252 JKRAG252     0 0 117.81       0       0       0       0       0       0       0       0     0       0       0       0  
JKRAG251 JKRAG251     0 0 117.31       0       0       0       0       0       0       0       0     0       0       0       0  
JKRAG211 JKRAG21      0 0  406.4       0       0       0       0       0       0       0       0     0       0       0       0  
JKRAG15  JKRAG15      0 0 117.18 27.1434 5.20282       0       0       0       0       0       0     0       0       0       0  
JKOVIN5  JKOVIN5      0 0 117.08 14.3481 2.77282       0       0       0       0       0       0     0       0       0       0  
JKOSJE5  JKOSJE5      0 0 114.87 5.40448   2.551       0       0       0       0       0       0     0       0       0       0  
JKOLUB52 JKOLUB52     0 0 112.25 3.92228 1.47212       0       0       0       0       0       0     0       0       0       0  
JKOLUB51 JKOLUB51     0 0 112.25 1.39145 .998216       0       0       0       0       0       0     0       0       0       0  
JKNJAZ5  JKNJAZ5      0 0 109.01 17.3327 3.81137       0       0       0       0       0       0     0       0       0       0  
JKNIC 5  JKNIC 5      0 0 117.08 4.89025 1.53261       0       0       0       0       0       0     0       0       0       0  
JKMART5  JKMART5      0 0  112.1       0       0       0       0       0       0       0       0     0       0       0       0  
JKIKI252 JKIKI252     0 0 114.19 .020166 .040332       0       0       0       0       0       0     0       0       0       0  
JKIKI251 JKIKI251     0 0 114.19  4.7995 2.15776       0       0       0       0       0       0     0       0       0       0  
JKIKI15  JKIKI15      0 0 114.13 15.8303 4.01303       0       0       0       0       0       0     0       0       0       0  
JKANJI5  JKANJI5      0 0 113.55 12.6239  3.7912       0       0       0       0       0       0     0       0       0       0  
JKACAR5  JKACAR5      0 0 116.44  10.688 2.86357       0       0       0       0       0       0     0       0       0       0  
JJAGO452 JJAGO452     0 0 113.11       0       0       0       0       0       0       0       0     0       0       0       0  
JJAGO451 JJAGO451     0 0 115.32       0       0       0       0       0       0       0       0     0       0       0       0  
JJAGO412 JJAGO412     0 0 405.75       0       0       0       0       0       0       0       0     0       0       0       0  
JJAGO411 JJAGO411     0 0 405.75       0       0       0       0       0       0       0       0     0       0       0       0  
JJAGO35  JJAGO35      0 0 112.95 10.0023 3.63996       0       0       0       0       0       0     0       0       0       0  
JJAGO25  JJAGO25      0 0 113.41 15.7597 3.82145       0       0       0       0       0       0     0       0       0       0  
JJAGO152 JJAGO152     0 0    110       0       0       0       0       0       0       0       0     0       0       0       0  
JJAGO151 JJAGO151     0 0  115.3 16.8285  5.2734       0       0       0       0       0       0     0       0       0       0  
JIVANJ5  JIVANJ5      0 0 111.35 13.1986 3.10556       0       0       0       0       0       0     0       0       0       0  
JINDJI5  JINDJI5      0 0 108.46 19.5207  3.7307       0       0       0       0       0       0     0       0       0       0  
JINDJ252 JINDJ252     0 0    110       0       0       0       0       0       0       0       0     0       0       0       0  
JINDJ251 JINDJ251     0 0    110       0       0       0       0       0       0       0       0     0       0       0       0  
JHZVOR52 JHZVOR52     0 0    110       0       0       0       0       0       0       0       0     0       0       0       0  
JHZVOR51 JHZVOR51     0 2 115.96 3.32739 .544481     -10      0.     -10     -31       0      -7     0       0       0       0 H
JHVRL35  JHVRL35      0 0  108.9       0       0       0       0       0     -23       0     -14     0       0       0       0 H
JHVRL25  JHVRL25      0 0 108.91       0       0       0       0       0     -14       0      -7     0       0       0       0 H
JHVRL15  JHVRL15      0 0 108.92       0       0       0       0       0     -28       0      -6     0       0       0       0 H
JHUVAC5  JHUVAC5      0 0 114.01       0       0       0       0       0     -36       0     -15     0       0       0       0 H
JHPOTP51 JHPOTP51     0 2 116.54 5.48514 2.13759      -5      0.      -5     -18       0      -7     0       0       0       0 H
JHPIRO5  JHPIRO5      0 0 107.13       0       0       0       0       0     -40       0     -12     0       0       0       0 H
JHKBRO5  JHKBRO5      0 0 115.76       0       0       0       0       0     -10       0      -4     0       0       0       0 H
JHIP  2  JHIP  2      0 0 235.13 20.0349 1.53261       0       0       0       0       0       0     0       0       0       0  
JHDJE25  JHDJE25      0 2 115.28 .110913 .110913    -120     -25       0    -145       0     -25     0       0       0       0 H
JHDJE112 JHDJE112     0 0    412       0       0       0       0       0       0       0       0     0       0       0       0  
JHDJE111 JHDJE111     0 3    412 .494066 .050415 -318.67 2.78239       0   -1000     200    -436     0       0       0       0 H
JHBIST2  JHBIST2      0 0 230.59       0       0       0       0       0     -52       0     -20     0       0       0       0 H
JHBBAS22 JHBBAS22     0 0 232.06       0       0       0       0       0    -106       0     -25     0       0       0       0 H
JHBBAS21 JHBBAS21     0 2  232.5       0       0     -25     -25     -20    -106       0     -25     0       0       0       0 H
JGUCA 5  JGUCA 5      0 0 112.15 14.3481  5.7473       0       0       0       0       0       0     0       0       0       0  
JGRADI5  JGRADI5      0 0 113.83 8.76211 .594896       0       0       0       0       0       0     0       0       0       0  
JGMILA5  JGMILA5      0 0 111.67 30.5212 8.24788       0       0       0       0       0       0     0       0       0       0  
JFUTOG5  JFUTOG5      0 0 115.39 23.9773 7.91514       0       0       0       0       0       0     0       0       0       0  
JFAS  5  JFAS  5      0 0 117.42 1.88552       0       0       0       0       0       0       0     0       0       0       0  
JESUSI5  JESUSI5      0 0 113.16  13.733 4.35585       0       0       0       0       0       0     0       0       0       0  
JESLOV5  JESLOV5      0 0 119.06 .453734 .030249       0       0       0       0       0       0     0       0       0       0  
JERIST5  JERIST5      0 0  108.8 2.52075 1.04863       0       0       0       0       0       0     0       0       0       0  
JERESN5  JERESN5      0 0 115.06 2.32917 1.55278       0       0       0       0       0       0     0       0       0       0  
JEMART5  JEMART5      0 0 112.52       0       0       0       0       0       0       0       0     0       0       0       0  
JEMARK5  JEMARK5      0 0 114.29 .181494       0       0       0       0       0       0       0     0       0       0       0  
JEKRAL5  JEKRAL5      0 0 113.39 .120996       0       0       0       0       0       0       0     0       0       0       0  
JEGRDE5  JEGRDE5      0 0 108.67 .191577 .060498       0       0       0       0       0       0     0       0       0       0  
JEDJUN5  JEDJUN5      0 0 111.35 1.17971 .292407       0       0       0       0       0       0     0       0       0       0  
JEBROD5  JEBROD5      0 0 115.94       0       0       0       0       0       0       0       0     0       0       0       0  
JEBRGU5  JEBRGU5      0 0 112.13 1.66369 .695726       0       0       0       0       0       0     0       0       0       0  
JDIMIT5  JDIMIT5      0 0 107.01 3.00473 .887303       0       0       0       0       0       0     0       0       0       0  
JDEBEL5  JDEBEL5      0 0 115.54 10.5166 3.75087       0       0       0       0       0       0     0       0       0       0  
JCVLIS5  JCVLIS5      0 0 108.94       0       0       0       0       0       0       0       0     0       0       0       0  
JCVBEL5  JCVBEL5      0 0 112.37       0       0       0       0       0       0       0       0     0       0       0       0  
JCVATE5  JCVATE5      0 0 112.19       0       0       0       0       0       0       0       0     0       0       0       0  
JCUPRI5  JCUPRI5      0 0 114.88 9.52842 3.19631       0       0       0       0       0       0     0       0       0       0  
JCSUPK5  JCSUPK5      0 0  115.3       0       0       0       0       0       0       0       0     0       0       0       0  
JCRVEN5  JCRVEN5      0 0 113.93 7.67315 1.64353       0       0       0       0       0       0     0       0       0       0  
JCICEV5  JCICEV5      0 0 110.88 13.2894 4.72892       0       0       0       0       0       0     0       0       0       0  
JCEMEN5  JCEMEN5      0 0  114.8 7.77398 2.59133       0       0       0       0       0       0     0       0       0       0  
JCELAR5  JCELAR5      0 0 114.51 5.85821 1.08896       0       0       0       0       0       0     0       0       0       0  
JCACA321 JCACAK2      0 0 224.34       0       0       0       0       0       0       0       0     0       0       0       0  
JCACA351 JCACA351     0 0 112.75       0       0       0       0       0       0       0       0     0       0       0       0  
JCACA251 JCACA25      0 0 112.14 25.2579 5.42465       0       0       0       0       0       0     0       0       0       0  
JCACA15  JCACA15      0 0 112.32 26.9417 7.27992       0       0       0       0       0       0     0       0       0       0  
JBUJAN5  JBUJAN5      0 0 108.36 10.5569 2.03676       0       0       0       0       0       0     0       0       0       0  
JBTOP25  JBTOP25      0 0    114 17.4839 3.68029       0       0       0       0       0       0     0       0       0       0  
JBTOP15  JBTOP15      0 0 114.17 4.68859 1.96618       0       0       0       0       0       0     0       0       0       0  
JBPOLJ5  JBPOLJ5      0 0 108.88 1.99643 .796556       0       0       0       0       0       0     0       0       0       0  
JBOSIL5  JBOSIL5      0 0    110       0       0       0       0       0       0       0       0     0       0       0       0  
JBOR3 5  JBOR3 5      0 0 111.77 8.85286 6.55394       0       0       0       0       0       0     0       0       0       0  
JBOR2 52 JBOR2 52     0 0 111.82       0       0       0       0       0       0       0       0     0       0       0       0  
JBOR2 51 JBOR2 51     0 0 111.82       0       0       0       0       0       0       0       0     0       0       0       0  
JBOR1 52 JBOR1 52     0 0 111.63 9.85108 1.99643       0       0       0       0       0       0     0       0       0       0  
JBOR1 51 JBOR1 51     0 0 111.63 11.2526 3.45846       0       0       0       0       0       0     0       0       0       0  
JBOR 21  JBOR 21      0 0 400.02       0       0       0       0       0       0       0       0     0       0       0       0  
JBOGAT5  JBOGAT5      0 0 111.83  9.7805 3.08539       0       0       0       0       0       0     0       0       0       0  
JBGD9 52 JBGD9 52     0 0    110       0       0       0       0       0       0       0       0     0       0       0       0  
JBGD9 51 JBGD9 51     0 0 117.69 69.6734 4.29535       0       0       0       0       0       0     0       0       0       0  
JBGD8 22 JBGD8 22     0 0 233.74       0       0       0       0       0       0       0       0     0       0       0       0  
JBGD8 21 JBGD8 21     0 0 233.74       0       0       0       0       0       0       0       0     0       0       0       0  
JBGD8 12 JBGD8 12     0 0  415.3       0       0       0       0       0       0       0       0     0       0       0       0  
JBGD8 11 JBGD8 11     0 0  415.3       0       0       0       0       0       0       0       0     0       0       0       0  
JBGD7 5  JBGD7 5      0 0  116.5 50.3544 2.32917       0       0       0       0       0       0     0       0       0       0  
JBGD6 52 JBGD6 52     0 0 117.81 46.1397  8.1168       0       0       0       0       0       0     0       0       0       0  
JBGD6 51 JBGD6 51     0 0 116.75       0       0       0       0       0       0       0       0     0       0       0       0  
JBGD5 54 JBGD5 54     0 0 118.13  3.9122 1.85527       0       0       0       0       0       0     0       0       0       0  
JBGD5 53 JBGD5 53     0 0 118.13       0       0       0       0       0       0       0       0     0       0       0       0  
JBGD5 52 JBGD5 52     0 0 118.13 42.0662 .433568       0       0       0       0       0       0     0       0       0       0  
JBGD5 51 JBGD5 51     0 0 118.13 42.6309       0       0       0       0       0       0       0     0       0       0       0  
JBGD5 22 JBGD5 22     0 0 237.33       0       0       0       0       0       0       0       0     0       0       0       0  
JBGD5 21 JBGD5 21     0 0 237.33       0       0       0       0       0       0       0       0     0       0       0       0  
JBGD415  JBGD415      0 0 118.12 12.5836 .070581       0       0       0       0       0       0     0       0       0       0  
JBGD405  JBGD405      0 0 117.95 26.5384 1.34104       0       0       0       0       0       0     0       0       0       0  
JBGD385  JBGD385      0 0 117.55 13.7734  1.0688       0       0       0       0       0       0     0       0       0       0  
JBGD365  JBGD365      0 0 114.66 21.9204 .645311       0       0       0       0       0       0     0       0       0       0  
JBGD355  JBGD355      0 0 113.18 20.6096 2.20817       0       0       0       0       0       0     0       0       0       0  
JBGD335  JBGD335      0 0 115.51 15.3161 .463817       0       0       0       0       0       0     0       0       0       0  
JBGD325  JBGD325      0 0 117.68 7.23958  1.3612       0       0       0       0       0       0     0       0       0       0  
JBGD3 52 JBGD3 52     0 0  115.3       0       0       0       0       0       0       0       0     0       0       0       0  
JBGD3 51 JBGD3 51     0 0  115.3       0       0       0       0       0       0       0       0     0       0       0       0  
JBGD3 22 JBGD3 22     0 0 234.04       0       0       0       0       0       0       0       0     0       0       0       0  
JBGD3 21 JBGD3 21     0 0 234.04       0       0       0       0       0       0       0       0     0       0       0       0  
JBGD2851 JBGD2851     0 0 116.75 21.9406 2.58124       0       0       0       0       0       0     0       0       0       0  
JBGD275  JBGD275      0 0 118.08 33.3444 4.58776       0       0       0       0       0       0     0       0       0       0  
JBGD2252 JBGD2252     0 0 112.16       0       0       0       0       0       0       0       0     0       0       0       0  
JBGD2251 JBGD2251     0 0 112.16 16.8487 4.39618       0       0       0       0       0       0     0       0       0       0  
JBGD215  JBGD215      0 0  114.4 .705809 .312573       0       0       0       0       0       0     0       0       0       0  
JBGD2052 JBGD2052     0 0 116.78       0       0       0       0       0       0       0       0     0       0       0       0  
JBGD2051 JBGD2051     0 0 116.78       0       0       0       0       0       0       0       0     0       0       0       0  
JBGD2012 JBGD2012     0 0 414.71       0       0       0       0       0       0       0       0     0       0       0       0  
JBGD2011 JBGD2011     0 0 414.71       0       0       0       0       0       0       0       0     0       0       0       0  
JBGD2 52 JBGD2 52     0 0 113.99       0       0       0       0       0       0       0       0     0       0       0       0  
JBGD2 51 JBGD2 51     0 0 117.56  25.157 .927635       0       0       0       0       0       0     0       0       0       0  
JBGD195  JBGD195      0 0 116.76 23.7958 .433568       0       0       0       0       0       0     0       0       0       0  
JBGD185  JBGD185      0 0 113.83 16.3244 1.44187       0       0       0       0       0       0     0       0       0       0  
JBGD1752 JBGD1752     0 0 114.68       0       0       0       0       0       0       0       0     0       0       0       0  
JBGD1751 JBGD1751     0 0 114.92 88.8714 3.28705       0       0       0       0       0       0     0       0       0       0  
JBGD1723 JBGD1723     0 0 233.62       0       0       0       0       0       0       0       0     0       0       0       0  
JBGD1722 JBGD1722     0 0 233.46       0       0       0       0       0       0       0       0     0       0       0       0  
JBGD1721 JBGD1721     0 0 233.46       0       0       0       0       0       0       0       0     0       0       0       0  
JBGD165  JBGD165      0 0 114.61 17.5242 2.71232       0       0       0       0       0       0     0       0       0       0  
JBGD155  JBGD155      0 0 114.59 29.0188  5.8683       0       0       0       0       0       0     0       0       0       0  
JBGD145  JBGD145      0 0 116.75 13.1986 .917552       0       0       0       0       0       0     0       0       0       0  
JBGD135  JBGD135      0 0 115.11 31.3783 2.29892       0       0       0       0       0       0     0       0       0       0  
JBGD125  JBGD125      0 0 118.08 19.2283 1.86535       0       0       0       0       0       0     0       0       0       0  
JBGD115  JBGD115      0 0 115.15 31.1766 1.18979       0       0       0       0       0       0     0       0       0       0  
JBGD105  JBGD105      0 0 112.05 17.5746  .10083       0       0       0       0       0       0     0       0       0       0  
JBGD1 5  JBGD1 5      0 0 116.75 42.6914 2.60141       0       0       0       0       0       0     0       0       0       0  
JBFC  5  JBFC  5      0 0 110.23  7.2295  2.0166       0       0       0       0       0       0     0       0       0       0  
JBEGEJ5  JBEGEJ5      0 0 114.99 6.80602 2.10734       0       0       0       0       0       0     0       0       0       0  
JBECEJ5  JBECEJ5      0 0    114 19.2081 4.58776       0       0       0       0       0       0     0       0       0       0  
JBCRKV5  JBCRKV5      0 0 113.76  6.2817 1.40153       0       0       0       0       0       0     0       0       0       0  
JBBAST22 JBBAST22     0 0 232.05       0       0       0       0       0       0       0       0     0       0       0       0  
JBBAST21 JBBAST21     0 0 232.05 9.50826 3.35763       0       0       0       0       0       0     0       0       0       0  
JBAJMO5  JBAJMO5      0 0 115.01 5.85821 1.01838       0       0       0       0       0       0     0       0       0       0  
JARILJ5  JARILJ5      0 0 112.06 10.6476 4.12394       0       0       0       0       0       0     0       0       0       0  
JARAND5  JARAND5      0 0 110.26 30.9447 7.37066       0       0       0       0       0       0     0       0       0       0  
JAPATI5  JAPATI5      0 0  113.6 13.5717   2.551       0       0       0       0       0       0     0       0       0       0  
JALIBU5  JALIBU5      0 0 112.83 9.03436 4.18444       0       0       0       0       0       0     0       0       0       0  
JALEKD5  JALEKD5      0 0 110.52 5.12216 1.81494       0       0       0       0       0       0     0       0       0       0  
JALEKC5  JALEKC5      0 0 110.21 13.0171 4.43651       0       0       0       0       0       0     0       0       0       0  
JADA  5  JADA  5      0 0 112.19 11.2022 3.68029       0       0       0       0       0       0     0       0       0       0  
JRUDN45  JRUDN45      0 0 113.92       0       0       0       0       0       0       0       0     0       0       0       0  
JKRAL65  JKRAL65      0 0 113.18 4.45668 .423485       0       0       0       0       0       0     0       0       0       0  
JTENTA5  JTENTA5      0 0 111.97 4.76925 3.33747       0       0       0       0       0       0     0       0       0       0  
JCVSTR5  JCVSTR5      0 0 113.95       0       0       0       0       0       0       0       0     0       0       0       0  
JKOPAO5  JKOPAO5      0 0 109.24 4.58776 1.23012       0       0       0       0       0       0     0       0       0       0  
JWCIBU11 JWCIBU11     0 2 416.86       0       0    -2.5  -38.29       0   -79.5   38.29  -38.29     0       0       0       0 W
JOBREN13 JOBREN13     0 0    400       0       0       0       0       0       0       0       0     0       0       0       0  
JWCIBU12 JWCIBU12     0 2 416.86       0       0    -2.5  -38.29       0   -79.5   38.29  -38.29     0       0       0       0 W
JWKOVA21 JWKOVA21     0 2 237.81       0       0    -5.5  -25.52       0     -53   25.52  -25.52     0       0       0       0 W
JWKOVA22 JWKOVA22     0 2 237.81       0       0    -5.5  -25.52       0     -53   25.52  -25.52     0       0       0       0 W
JWALIB51 JWALIB51     0 2 113.06       0       0      -3    16.8       0     -42    16.8   -18.9     0       0       0       0 W
JWALIB52 JWALIB52     0 0 113.06       0       0       0       0       0       0       0       0     0       0       0       0  
JWKOSA51 JWKOSA51     0 2 111.86       0       0    -0.5      12       0   -34.5      12  -16.49     0       0       0       0 W
JWKOSA52 JWKOSA52     0 2 111.86       0       0    -0.5      12       0   -34.5      12  -16.49     0       0       0       0 W
JKRAG212 JKRAG212     0 0    400       0       0       0       0       0       0       0       0     0       0       0       0  
JPANC212 JPANC212     0 0 414.38       0       0       0       0       0       0       0       0     0       0       0       0  
JSABA322 JSABA322     0 0    220       0       0       0       0       0       0       0       0     0       0       0       0  
JCACA322 JCACA322     0 0    220       0       0       0       0       0       0       0       0     0       0       0       0  
JCACA352 JCACA352     0 0    110       0       0       0       0       0       0       0       0     0       0       0       0  
JPOZEG52 JPOZEG52     0 0    110       0       0       0       0       0       0       0       0     0       0       0       0  
JPOZEG22 JPOZEG22     0 0    220       0       0       0       0       0       0       0       0     0       0       0       0  
JSEVOJ52 JSEVOJ52     0 0    110       0       0       0       0       0       0       0       0     0       0       0       0  
JCACA252 JCACA252     0 0    110       0       0       0       0       0       0       0       0     0       0       0       0  
JZLAT252 JZLAT252     0 0    110       0       0       0       0       0       0       0       0     0       0       0       0  
JKRNJE51 JKRNJE51     0 0 116.78 13.2692       0       0       0       0       0       0       0     0       0       0       0  
JBGD235  JBGD235      0 0 114.68  10.688 .131079       0       0       0       0       0       0     0       0       0       0  
JNIS155  JNIS155      0 0 108.94 11.7971 4.17436       0       0       0       0       0       0     0       0       0       0  
JSMED311 JSMED311     0 0 417.52       0       0       0       0       0       0       0       0     0       0       0       0  
JKRUS35  JKRUS35      0 0 111.54 7.18917  .37307       0       0       0       0       0       0     0       0       0       0  
JBGD4551 JBGD4551     0 0  117.9 6.01954       0       0       0       0       0       0       0     0       0       0       0  
JBGD4552 JBGD4552     0 0 114.68       0       0       0       0       0       0       0       0     0       0       0       0  
JLOZN251 JLOZN251     0 0 116.82  8.6512 .957884       0       0       0       0       0       0     0       0       0       0  
JRUDN55  JRUDN55      0 0 114.04       0       0       0       0       0       0       0       0     0       0       0       0  
JCVLOZ5  JCVLOZ5      0 0 114.67       0       0       0       0       0       0       0       0     0       0       0       0  
JZREN222 JZREN222     0 0 233.63       0       0       0       0       0       0       0       0     0       0       0       0  
JBOR4 51 JBOR4 51     0 0 111.44       0       0       0       0       0       0       0       0     0       0       0       0  
JBOR4 52 JBOR4 52     0 0 111.44       0       0       0       0       0       0       0       0     0       0       0       0  
JBISTR51 JBISTR51     0 0 116.96       0       0       0       0       0       0       0       0     0       0       0       0  
JBISTR52 JBISTR52     0 0 116.96       0       0       0       0       0       0       0       0     0       0       0       0  
JBISTR21 JBISTR21     0 0 230.57       0       0       0       0       0       0       0       0     0       0       0       0  
JTTPAN21 JTTPAN21     0 2 235.41       0       0     -51       0       0     -64       0     -48     0       0       0       0 G
JTTPAN22 JTTPAN22     0 2 235.41       0       0     -51       0       0     -64       0     -48     0       0       0       0 G
JSRBOB11 JSRBOB11     0 0 415.89       0       0       0       0       0       0       0       0     0       0       0       0  
JSRBOB12 JSRBOB12     0 0 415.89       0       0       0       0       0       0       0       0     0       0       0       0  
JTTPAN23 JTTPAN23     0 2 235.42       0       0     -68       0       0     -68       0     -48     0       0       0       0 C
JPRPPA21 JPRPPA21     0 0 235.39       0       0       0       0       0       0       0       0     0       0       0       0  
JPRPPA22 JPRPPA22     0 0 235.39       0       0       0       0       0       0       0       0     0       0       0       0  
JKRAL311 JKRAL311     0 0 381.32       0       0       0       0       0       0       0       0     0       0       0       0  
JUB   5  JUB   5      0 0 115.42       0       0       0       0       0       0       0       0     0       0       0       0  
JTUTIN5  JTUTIN5      0 0 109.12       0       0       0       0       0       0       0       0     0       0       0       0  
##ZXX
XZV_BI51 XZV_BI51     1 0    116 -4.4454 -2.0739       0       0       0       0       0       0     0       0       0       0  
XBR_VR51 XBR_VR51     1 0    110       0       0       0       0       0       0       0       0     0       0       0       0  
XSO_NI11 XSO_NI11     1 0 383.79 -112.48 95.4341       0       0       0       0       0       0     0       0       0       0  
XUG_SM11 XUG_SM11     1 0 408.42 186.339 -20.886       0       0       0       0       0       0     0       0       0       0  
XBI_LE51 XBI_LE51     1 0 113.81       0 .170145       0       0       0       0       0       0     0       0       0       0  
XST_VR11 XST_VR11     1 0  382.2 16.8558 60.4458       0       0       0       0       0       0     0       0       0       0  
XPL_BB21 XPL_BB21     1 0 233.06 15.9597 -11.098       0       0       0       0       0       0     0       0       0       0  
XKU_ZA51 XKU_ZA51     1 0    110       0       0       0       0       0       0       0       0     0       0       0       0  
XPL_ZA51 XPL_ZA51     1 0  116.7 -16.746 5.45961       0       0       0       0       0       0     0       0       0       0  
XVI_VA21 XVI_VA21     1 0  226.7 .888174 4.62084       0       0       0       0       0       0     0       0       0       0  
...